** sch_path: /home/nsptrq/opamp/mag/nmoscs.sch
.subckt nmoscs D3 D4 rs GND
*.PININFO rs:B D3:B GND:B D4:B
XM4 D4 D3 rs GND sky130_fd_pr__nfet_01v8 L=1 W=2 nf=1 m=2
XM3 D3 D3 GND GND sky130_fd_pr__nfet_01v8 L=1 W=2 nf=1 m=2
XM1 D3 D3 D3 GND sky130_fd_pr__nfet_01v8 L=0.15 W=2 nf=1 m=2
XM2 D4 D4 D4 GND sky130_fd_pr__nfet_01v8 L=0.15 W=2 nf=1 m=2
.ends
.end
